opendss/13positivebus/ieee13nodeckt_VLN_Node.Txt

LINE-GROUND and LINE-LINE VOLTAGES BY BUS & NODE

Bus       Node    VLN (kV)   Angle      pu     Base kV    Node-Node   VLL (kV)  Angle      pu

SOURCEBUS 1       66.393 /_   30.0   0.99997   115.000
RG60 .... 1       2.5519 /_   30.1    1.0625     4.160
632 ..... 1       2.5076 /_   37.1     1.044     4.160
670 ..... 1       2.5106 /_   39.6    1.0453     4.160
671 ..... 1       2.5318 /_   44.6    1.0541     4.160
680 ..... 1       2.5164 /_   44.3    1.0477     4.160
633 ..... 1       2.5028 /_   37.0    1.0421     4.160
645 ..... 1        2.499 /_   37.0    1.0405     4.160
646 ..... 1       2.4962 /_   37.0    1.0393     4.160
692 ..... 1       2.5317 /_   44.6    1.0541     4.160
675 ..... 1       2.5312 /_   44.5    1.0539     4.160
684 ..... 1       2.5147 /_   44.5     1.047     4.160
611 ..... 1       2.5133 /_   44.5    1.0464     4.160
652 ..... 1       2.5103 /_   44.6    1.0452     4.160
634 ..... 1      0.28666 /_   36.8    1.0344     0.480
650 ..... 1       2.4016 /_   30.0   0.99992     4.160
